**   ABAQUS Input Deck Generated by HyperMesh Version  : 2019.0.0.70
**   Generated using HyperMesh-Abaqus Template Version : 2019.0.0.70
** 
**     Template:  ABAQUS/STANDARD 3D
** 
*Heading
** Job name: Beam06 Model name: BeamContact
** Generated by: Abaqus/CAE 2017
*Preprint, echo=NO, model=NO, history=NO, contact=NO
**
** PARTS
**
*Part, name=PART-1
*Node
      1,         -50.,         1.25,          20.
      2,         -50.,       3.4375,          20.
      3,         -50.,        5.625,          20.
      4,         -50.,       7.8125,          20.
      5,         -50.,          10.,          20.
      6,         -50.,         1.25,         17.5
      7,         -50.,       3.4375,         17.5
      8,         -50.,        5.625,         17.5
      9,         -50.,       7.8125,         17.5
     10,         -50.,          10.,         17.5
     11,         -50.,         1.25,          15.
     12,         -50.,       3.4375,          15.
     13,         -50.,        5.625,          15.
     14,         -50.,       7.8125,          15.
     15,         -50.,          10.,          15.
     16,         -50.,         1.25,         12.5
     17,         -50.,       3.4375,         12.5
     18,         -50.,        5.625,         12.5
     19,         -50.,       7.8125,         12.5
     20,         -50.,          10.,         12.5
** ... 1219 like lines cut
*Element, type=C3D8H
  1,   36,   37,   42,   41,    1,    2,    7,    6
  2,   37,   38,   43,   42,    2,    3,    8,    7
  3,   38,   39,   44,   43,    3,    4,    9,    8
  4,   39,   40,   45,   44,    4,    5,   10,    9
  5,   41,   42,   47,   46,    6,    7,   12,   11
  6,   42,   43,   48,   47,    7,    8,   13,   12
  7,   43,   44,   49,   48,    8,    9,   14,   13
  8,   44,   45,   50,   49,    9,   10,   15,   14
  9,   46,   47,   52,   51,   11,   12,   17,   16
 10,   47,   48,   53,   52,   12,   13,   18,   17
 11,   48,   49,   54,   53,   13,   14,   19,   18
 12,   49,   50,   55,   54,   14,   15,   20,   19
 13,   51,   52,   57,   56,   16,   17,   22,   21
 14,   52,   53,   58,   57,   17,   18,   23,   22
 15,   53,   54,   59,   58,   18,   19,   24,   23
 16,   54,   55,   60,   59,   19,   20,   25,   24
 17,   56,   57,   62,   61,   21,   22,   27,   26
 18,   57,   58,   63,   62,   22,   23,   28,   27
 19,   58,   59,   64,   63,   23,   24,   29,   28
 20,   59,   60,   65,   64,   24,   25,   30,   29
** ... 772 like lines cut
*Nset, nset=CONNODE111
   1,   2,   3,   4,   5,   6,   7,   8,   9,  10,  11,  12,  13,  14,  15,  16
*Elset, elset=SLAVEPART, generate
   1,  480,    1
*Elset, elset=MASTERPART, generate
 481,  792,    1
** Section: Section-1
*Solid Section, elset=SLAVEPART, material=Material-1
,
** Section: Section-1
*Solid Section, elset=MASTERPART, material=Material-1
,
*End Part
**  
**
** ASSEMBLY
**
*Assembly, name=Assembly
**  
*Instance, name=PART-1-1, part=PART-1
*End Instance
**  
*Elset, elset=AAAA, instance=PART-1-1, generate
 481,  792,    1
*Elset, elset=AUTO1, instance=PART-1-1, generate
   1,  480,    1
*Nset, nset=CONNODE, instance=PART-1-1
   1,   2,   3,   4,   5,   6,   7,   8,   9,  10,  11,  12,  13,  14,  15,  16
  17,  18,  19,  20,  21,  22,  23,  24,  25,  26,  27,  28,  29,  30,  31,  32
  33,  34,  35, 736, 737, 738, 739, 740, 741, 742, 743, 744, 745, 746, 747, 748
 749, 750, 751, 752, 753, 754, 755, 756, 757, 758, 759, 760, 761, 762, 763, 764
 765, 766, 767, 768, 769, 770, 771
*Nset, nset=SET-4, instance=PART-1-1, generate
 705,  735,    5
*Elset, elset=_MASTERSURF_S4, internal, instance=PART-1-1, generate
 483,  792,    3
*Elset, elset=_SLAVESURF_S6, internal, instance=PART-1-1, generate
   1,  477,    4
*Surface, type=ELEMENT, name=MASTERSURF
_MASTERSURF_S4, S4
*Surface, type=ELEMENT, name=SLAVESURF
_SLAVESURF_S6, S6
*End Assembly
** 
** MATERIALS
** 
*Material, name=Material-1
*Hyperelastic, mooney-rivlin
 0.195, 0.0162,   0.01
** 
** INTERACTION PROPERTIES
** 
*Surface Interaction, name=INTPROP-1
1.,
*Friction, slip tolerance=0.005
 0.8,
*Surface Behavior, penalty
** 
** INTERACTIONS
** 
** Interaction: INTPROP-1-1
*Contact Pair, interaction=INTPROP-1, type=SURFACE TO SURFACE
SLAVESURF, MASTERSURF
** ----------------------------------------------------------------
** 
** STEP: Step-1
** 
*Step, name=Step-1, nlgeom=YES, inc=100000
*Static, direct
0.002, 1., 
** 
** BOUNDARY CONDITIONS
** 
** Name: Disp-BC-1 Type: Displacement/Rotation
*Boundary
CONNODE, 1, 1
** Name: Disp-BC-2 Type: Displacement/Rotation
*Boundary
CONNODE, 2, 2
** Name: Disp-BC-3 Type: Displacement/Rotation
*Boundary
CONNODE, 3, 3
** 
** LOADS
** 
** Name: CFORCE-1   Type: Concentrated force
*Cload
SET-4, 2, -0.6
** 
** OUTPUT REQUESTS
** 
*Restart, write, frequency=0
** 
** FIELD OUTPUT: F-Output-1
** 
*Output, field, variable=PRESELECT
** 
** HISTORY OUTPUT: H-Output-1
** 
*Output, history, variable=PRESELECT
*End Step
